<?xml version="1.0" encoding="UTF-8"?>

<!-- generated on Tue Apr 18 11:45:57 2017 by SUMO netgenerate Version 0.28.0
<?xml version="1.0" encoding="UTF-8"?>

<configuration xmlns:xsi="http://www.w3.org/2001/XMLSchema-instance" xsi:noNamespaceSchemaLocation="http://sumo.dlr.de/xsd/netgenerateConfiguration.xsd">

    <random_network>
        <rand value="true"/>
        <rand.iterations value="100"/>
    </random_network>

    <output>
        <output-file value="random.net.xml"/>
    </output>

    <tls_building>
        <tls.guess value="true"/>
    </tls_building>

    <processing>
        <no-turnarounds value="true"/>
    </processing>

    <building_defaults>
        <default.lanenumber value="2"/>
    </building_defaults>

</configuration>
-->

<net version="0.27" xmlns:xsi="http://www.w3.org/2001/XMLSchema-instance" xsi:noNamespaceSchemaLocation="http://sumo.dlr.de/xsd/net_file.xsd">

    <location netOffset="882.72,1528.66" convBoundary="0.00,0.00,1795.49,2428.02" origBoundary="-882.72,-1528.66,912.78,899.36" projParameter="!"/>

    <edge id=":1_0" function="internal">
        <lane id=":1_0_0" index="0" speed="13.90" length="5.38" shape="877.93,1538.98 877.69,1537.46 877.02,1536.52 875.92,1536.18 874.40,1536.42"/>
    </edge>
    <edge id=":1_1" function="internal">
        <lane id=":1_1_0" index="0" speed="13.90" length="17.12" shape="877.93,1538.98 877.86,1534.01 877.71,1530.60 877.21,1527.23 876.12,1522.39"/>
        <lane id=":1_1_1" index="1" speed="13.90" length="17.12" shape="881.23,1538.93 881.16,1533.74 880.99,1530.18 880.46,1526.67 879.33,1521.62"/>
    </edge>
    <edge id=":1_3" function="internal">
        <lane id=":1_3_0" index="0" speed="13.90" length="7.45" shape="881.23,1538.93 881.78,1533.71 882.77,1531.74"/>
    </edge>
    <edge id=":1_16" function="internal">
        <lane id=":1_16_0" index="0" speed="13.90" length="10.16" shape="882.77,1531.74 883.62,1530.04 886.76,1527.91 891.18,1527.33"/>
    </edge>
    <edge id=":1_4" function="internal">
        <lane id=":1_4_0" index="0" speed="13.90" length="6.59" shape="890.93,1533.92 889.55,1534.18 888.56,1535.09 887.99,1536.63 887.83,1538.82"/>
    </edge>
    <edge id=":1_5" function="internal">
        <lane id=":1_5_0" index="0" speed="13.90" length="17.43" shape="890.93,1533.92 885.95,1533.83 882.53,1534.12 879.18,1534.94 874.40,1536.42"/>
        <lane id=":1_5_1" index="1" speed="13.90" length="17.43" shape="891.06,1530.63 885.74,1530.52 882.09,1530.83 878.52,1531.69 873.42,1533.27"/>
    </edge>
    <edge id=":1_7" function="internal">
        <lane id=":1_7_0" index="0" speed="13.90" length="6.68" shape="891.06,1530.63 886.71,1529.92 884.68,1528.89"/>
    </edge>
    <edge id=":1_17" function="internal">
        <lane id=":1_17_0" index="0" speed="13.90" length="9.34" shape="884.68,1528.89 883.30,1528.19 880.84,1525.42 879.33,1521.62"/>
    </edge>
    <edge id=":1_8" function="internal">
        <lane id=":1_8_0" index="0" speed="13.90" length="7.39" shape="885.75,1520.08 886.44,1521.74 887.59,1522.95 889.22,1523.72 891.31,1524.03"/>
    </edge>
    <edge id=":1_9" function="internal">
        <lane id=":1_9_0" index="0" speed="13.90" length="18.57" shape="885.75,1520.08 886.98,1525.55 887.56,1529.35 887.75,1533.21 887.83,1538.82"/>
        <lane id=":1_9_1" index="1" speed="13.90" length="18.57" shape="882.54,1520.85 883.72,1526.11 884.27,1529.77 884.45,1533.47 884.53,1538.88"/>
    </edge>
    <edge id=":1_11" function="internal">
        <lane id=":1_11_0" index="0" speed="13.90" length="5.93" shape="882.54,1520.85 882.77,1524.97 882.08,1526.63"/>
    </edge>
    <edge id=":1_18" function="internal">
        <lane id=":1_18_0" index="0" speed="13.90" length="11.33" shape="882.08,1526.63 881.33,1528.42 878.21,1531.18 873.42,1533.27"/>
    </edge>
    <edge id=":1_12" function="internal">
        <lane id=":1_12_0" index="0" speed="13.90" length="7.18" shape="871.46,1526.97 873.76,1526.06 875.31,1524.99 876.09,1523.77 876.12,1522.39"/>
    </edge>
    <edge id=":1_13" function="internal">
        <lane id=":1_13_0" index="0" speed="13.90" length="19.68" shape="871.46,1526.97 877.19,1525.20 881.22,1524.24 885.34,1523.91 891.31,1524.03"/>
        <lane id=":1_13_1" index="1" speed="13.90" length="19.68" shape="872.44,1530.12 877.86,1528.45 881.66,1527.54 885.53,1527.22 891.18,1527.33"/>
    </edge>
    <edge id=":1_15" function="internal">
        <lane id=":1_15_0" index="0" speed="13.90" length="7.12" shape="872.44,1530.12 877.66,1529.28 879.41,1529.83"/>
    </edge>
    <edge id=":1_19" function="internal">
        <lane id=":1_19_0" index="0" speed="13.90" length="11.31" shape="879.41,1529.83 881.41,1530.46 883.70,1533.66 884.53,1538.88"/>
    </edge>
    <edge id=":10_0" function="internal">
        <lane id=":10_0_0" index="0" speed="13.90" length="5.98" shape="720.03,1593.60 719.24,1591.96 718.28,1591.29 717.16,1591.59 715.86,1592.87"/>
    </edge>
    <edge id=":10_1" function="internal">
        <lane id=":10_1_0" index="0" speed="13.90" length="19.48" shape="720.03,1593.60 718.43,1588.32 717.16,1584.65 715.10,1581.51 711.16,1577.84"/>
        <lane id=":10_1_1" index="1" speed="13.90" length="19.48" shape="723.17,1592.56 721.38,1586.76 719.93,1582.74 717.61,1579.31 713.25,1575.29"/>
    </edge>
    <edge id=":10_3" function="internal">
        <lane id=":10_3_0" index="0" speed="13.90" length="9.42" shape="723.17,1592.56 721.64,1585.98 721.77,1583.32"/>
    </edge>
    <edge id=":10_16" function="internal">
        <lane id=":10_16_0" index="0" speed="13.90" length="11.04" shape="721.77,1583.32 721.89,1580.87 723.93,1577.21 727.74,1575.02"/>
    </edge>
    <edge id=":10_4" function="internal">
        <lane id=":10_4_0" index="0" speed="13.90" length="9.91" shape="729.70,1581.32 728.56,1582.25 728.14,1584.08 728.43,1586.83 729.43,1590.49"/>
    </edge>
    <edge id=":10_5" function="internal">
        <lane id=":10_5_0" index="0" speed="13.90" length="19.54" shape="729.70,1581.32 724.69,1583.26 721.63,1585.44 719.16,1588.45 715.86,1592.87"/>
        <lane id=":10_5_1" index="1" speed="13.90" length="19.54" shape="728.72,1578.17 723.15,1580.29 719.72,1582.67 716.93,1585.96 713.26,1590.83"/>
    </edge>
    <edge id=":10_7" function="internal">
        <lane id=":10_7_0" index="0" speed="13.90" length="6.36" shape="728.72,1578.17 724.51,1579.00 722.45,1578.89"/>
    </edge>
    <edge id=":10_17" function="internal">
        <lane id=":10_17_0" index="0" speed="13.90" length="10.07" shape="722.45,1578.89 720.53,1578.79 716.77,1577.56 713.25,1575.29"/>
    </edge>
    <edge id=":10_8" function="internal">
        <lane id=":10_8_0" index="0" speed="13.90" length="9.91" shape="717.42,1570.17 719.53,1571.53 721.80,1572.26 724.21,1572.38 726.76,1571.87"/>
    </edge>
    <edge id=":10_9" function="internal">
        <lane id=":10_9_0" index="0" speed="13.90" length="23.14" shape="717.42,1570.17 722.12,1574.68 725.15,1579.14 727.32,1584.20 729.43,1590.49"/>
        <lane id=":10_9_1" index="1" speed="13.90" length="23.14" shape="715.33,1572.73 719.87,1577.00 722.54,1580.94 724.35,1585.47 726.30,1591.53"/>
    </edge>
    <edge id=":10_11" function="internal">
        <lane id=":10_11_0" index="0" speed="13.90" length="5.84" shape="715.33,1572.73 717.98,1576.12 718.17,1577.65"/>
    </edge>
    <edge id=":10_18" function="internal">
        <lane id=":10_18_0" index="0" speed="13.90" length="14.54" shape="718.17,1577.65 718.51,1580.27 716.94,1585.18 713.26,1590.83"/>
    </edge>
    <edge id=":10_12" function="internal">
        <lane id=":10_12_0" index="0" speed="13.90" length="10.13" shape="708.07,1586.76 710.31,1583.59 711.58,1581.04 711.86,1579.13 711.16,1577.84"/>
    </edge>
    <edge id=":10_13" function="internal">
        <lane id=":10_13_0" index="0" speed="13.90" length="23.44" shape="708.07,1586.76 712.25,1581.53 716.15,1577.48 720.68,1574.34 726.76,1571.87"/>
        <lane id=":10_13_1" index="1" speed="13.90" length="23.44" shape="710.66,1588.80 714.59,1583.74 717.93,1580.07 721.91,1577.32 727.74,1575.02"/>
    </edge>
    <edge id=":10_15" function="internal">
        <lane id=":10_15_0" index="0" speed="13.90" length="8.11" shape="710.66,1588.80 715.53,1584.01 716.77,1583.68"/>
    </edge>
    <edge id=":10_19" function="internal">
        <lane id=":10_19_0" index="0" speed="13.90" length="14.30" shape="716.77,1583.68 719.75,1582.87 723.34,1585.38 726.30,1591.53"/>
    </edge>
    <edge id=":1004_0" function="internal">
        <lane id=":1004_0_0" index="0" speed="13.90" length="4.66" shape="745.20,1833.87 743.99,1833.67 742.91,1833.84 741.96,1834.39 741.14,1835.31"/>
    </edge>
    <edge id=":1004_1" function="internal">
        <lane id=":1004_1_0" index="0" speed="13.90" length="14.26" shape="745.20,1833.87 740.91,1832.46 738.08,1831.01 735.79,1828.82 733.12,1825.19"/>
        <lane id=":1004_1_1" index="1" speed="13.90" length="14.26" shape="746.16,1830.71 742.49,1829.51 740.07,1828.28 738.12,1826.41 735.83,1823.31"/>
    </edge>
    <edge id=":1004_3" function="internal">
        <lane id=":1004_3_0" index="0" speed="13.90" length="9.77" shape="741.26,1819.55 742.77,1821.59 744.06,1822.81 745.66,1823.61 748.08,1824.40"/>
        <lane id=":1004_3_1" index="1" speed="13.90" length="9.77" shape="738.54,1821.43 740.44,1824.00 742.07,1825.54 744.08,1826.56 747.12,1827.56"/>
    </edge>
    <edge id=":1004_5" function="internal">
        <lane id=":1004_5_0" index="0" speed="13.90" length="5.31" shape="738.54,1821.43 740.06,1824.38 740.37,1826.35"/>
    </edge>
    <edge id=":1004_8" function="internal">
        <lane id=":1004_8_0" index="0" speed="13.90" length="7.54" shape="740.37,1826.35 740.54,1827.36 739.99,1830.39 738.41,1833.45"/>
    </edge>
    <edge id=":1004_6" function="internal">
        <lane id=":1004_6_0" index="0" speed="13.90" length="4.87" shape="732.95,1829.74 733.58,1828.55 733.81,1827.39 733.66,1826.27 733.12,1825.19"/>
    </edge>
    <edge id=":1004_7" function="internal">
        <lane id=":1004_7_0" index="0" speed="13.90" length="13.10" shape="735.68,1831.59 737.98,1829.01 740.66,1827.47 743.70,1826.99 747.12,1827.56"/>
    </edge>
    <edge id=":1010_0" function="internal">
        <lane id=":1010_0_0" index="0" speed="13.90" length="26.83" shape="777.17,2084.55 773.62,2090.11 768.61,2094.42 762.15,2097.49 754.23,2099.32"/>
        <lane id=":1010_0_1" index="1" speed="13.90" length="26.83" shape="774.17,2083.17 771.06,2088.00 766.62,2091.75 760.86,2094.43 753.78,2096.05"/>
    </edge>
    <edge id=":1010_2" function="internal">
        <lane id=":1010_2_0" index="0" speed="13.90" length="9.79" shape="774.17,2083.17 771.00,2087.69 767.00,2089.20"/>
    </edge>
    <edge id=":1010_8" function="internal">
        <lane id=":1010_8_0" index="0" speed="13.90" length="12.29" shape="767.00,2089.20 762.17,2087.69 756.51,2083.18"/>
    </edge>
    <edge id=":1010_3" function="internal">
        <lane id=":1010_3_0" index="0" speed="13.90" length="8.59" shape="761.16,2078.49 763.63,2080.63 765.63,2081.67 767.14,2081.60 768.17,2080.43"/>
    </edge>
    <edge id=":1010_4" function="internal">
        <lane id=":1010_4_0" index="0" speed="13.90" length="23.53" shape="758.84,2080.84 763.33,2086.56 763.99,2091.00 760.80,2094.16 753.78,2096.05"/>
    </edge>
    <edge id=":1010_5" function="internal">
        <lane id=":1010_5_0" index="0" speed="13.90" length="6.16" shape="752.87,2089.51 754.71,2089.02 755.54,2088.19 755.37,2087.03 754.19,2085.53"/>
    </edge>
    <edge id=":1010_6" function="internal">
        <lane id=":1010_6_0" index="0" speed="13.90" length="20.20" shape="752.87,2089.51 758.29,2088.32 762.64,2086.41 765.94,2083.78 768.17,2080.43"/>
        <lane id=":1010_6_1" index="1" speed="13.90" length="20.20" shape="753.32,2092.78 759.57,2091.38 764.63,2089.08 768.50,2085.89 771.17,2081.80"/>
    </edge>
    <edge id=":1026_0" function="internal">
        <lane id=":1026_0_0" index="0" speed="13.90" length="4.98" shape="590.38,1730.19 589.99,1728.89 589.28,1728.01 588.24,1727.56 586.88,1727.54"/>
    </edge>
    <edge id=":1026_1" function="internal">
        <lane id=":1026_1_0" index="0" speed="13.90" length="15.47" shape="590.38,1730.19 589.70,1725.54 589.38,1722.33 589.38,1719.11 589.68,1714.43"/>
        <lane id=":1026_1_1" index="1" speed="13.90" length="15.47" shape="593.64,1729.71 593.00,1725.27 592.69,1722.21 592.69,1719.14 592.97,1714.67"/>
    </edge>
    <edge id=":1026_3" function="internal">
        <lane id=":1026_3_0" index="0" speed="13.90" length="14.02" shape="599.55,1715.15 599.30,1719.19 599.30,1721.97 599.59,1724.73 600.17,1728.74"/>
        <lane id=":1026_3_1" index="1" speed="13.90" length="14.02" shape="596.26,1714.91 595.99,1719.16 596.00,1722.09 596.29,1725.00 596.91,1729.23"/>
    </edge>
    <edge id=":1026_5" function="internal">
        <lane id=":1026_5_0" index="0" speed="13.90" length="5.75" shape="596.26,1714.91 595.42,1718.56 594.29,1720.21"/>
    </edge>
    <edge id=":1026_8" function="internal">
        <lane id=":1026_8_0" index="0" speed="13.90" length="9.10" shape="594.29,1720.21 593.51,1721.34 590.53,1723.24 586.47,1724.27"/>
    </edge>
    <edge id=":1026_6" function="internal">
        <lane id=":1026_6_0" index="0" speed="13.90" length="5.70" shape="585.63,1717.72 587.32,1717.33 588.56,1716.65 589.35,1715.69 589.68,1714.43"/>
    </edge>
    <edge id=":1026_7" function="internal">
        <lane id=":1026_7_0" index="0" speed="13.90" length="15.47" shape="586.05,1721.00 590.28,1721.06 593.50,1722.45 595.71,1725.17 596.91,1729.23"/>
    </edge>
    <edge id=":1092_0" function="internal">
        <lane id=":1092_0_0" index="0" speed="13.90" length="24.76" shape="645.42,1977.77 641.18,1972.55 638.60,1967.21 636.91,1961.37 635.35,1954.64"/>
        <lane id=":1092_0_1" index="1" speed="13.90" length="24.76" shape="647.74,1975.42 643.64,1970.45 641.36,1965.65 639.98,1960.35 638.56,1953.87"/>
    </edge>
    <edge id=":1092_2" function="internal">
        <lane id=":1092_2_0" index="0" speed="13.90" length="5.47" shape="647.74,1975.42 645.78,1971.95 645.78,1970.47"/>
    </edge>
    <edge id=":1092_8" function="internal">
        <lane id=":1092_8_0" index="0" speed="13.90" length="16.96" shape="645.78,1970.47 645.80,1967.37 647.80,1961.70 651.78,1954.94"/>
    </edge>
    <edge id=":1092_3" function="internal">
        <lane id=":1092_3_0" index="0" speed="13.90" length="13.49" shape="657.24,1958.65 654.36,1963.19 652.59,1966.72 651.94,1969.23 652.39,1970.73"/>
    </edge>
    <edge id=":1092_4" function="internal">
        <lane id=":1092_4_0" index="0" speed="13.90" length="25.28" shape="654.51,1956.79 649.28,1962.83 644.88,1964.35 641.31,1961.37 638.56,1953.87"/>
    </edge>
    <edge id=":1092_5" function="internal">
        <lane id=":1092_5_0" index="0" speed="13.90" length="6.46" shape="644.98,1952.33 645.68,1954.25 646.60,1955.01 647.72,1954.62 649.05,1953.08"/>
    </edge>
    <edge id=":1092_6" function="internal">
        <lane id=":1092_6_0" index="0" speed="13.90" length="21.22" shape="644.98,1952.33 646.12,1958.30 646.91,1962.53 648.58,1966.27 652.39,1970.73"/>
        <lane id=":1092_6_1" index="1" speed="13.90" length="21.22" shape="641.77,1953.10 643.05,1959.34 644.13,1964.10 646.10,1968.36 650.06,1973.08"/>
    </edge>
    <edge id=":115_0" function="internal">
        <lane id=":115_0_0" index="0" speed="13.90" length="5.82" shape="1053.29,1225.83 1052.31,1224.38 1051.28,1223.85 1050.18,1224.25 1049.03,1225.56"/>
    </edge>
    <edge id=":115_1" function="internal">
        <lane id=":115_1_0" index="0" speed="13.90" length="19.35" shape="1053.29,1225.83 1050.72,1221.62 1047.67,1218.35 1044.14,1216.01 1040.13,1214.61"/>
        <lane id=":115_1_1" index="1" speed="13.90" length="19.35" shape="1056.24,1224.35 1053.27,1219.51 1049.72,1215.74 1045.57,1213.03 1040.85,1211.38"/>
    </edge>
    <edge id=":115_3" function="internal">
        <lane id=":115_3_0" index="0" speed="13.90" length="25.23" shape="1042.27,1204.94 1048.43,1207.06 1053.80,1210.51 1058.37,1215.29 1062.15,1221.41"/>
        <lane id=":115_3_1" index="1" speed="13.90" length="25.23" shape="1041.56,1208.16 1047.00,1210.04 1051.76,1213.13 1055.82,1217.40 1059.20,1222.88"/>
    </edge>
    <edge id=":115_5" function="internal">
        <lane id=":115_5_0" index="0" speed="13.90" length="9.77" shape="1041.56,1208.16 1046.79,1210.23 1049.32,1213.51"/>
    </edge>
    <edge id=":115_8" function="internal">
        <lane id=":115_8_0" index="0" speed="13.90" length="10.90" shape="1049.32,1213.51 1049.15,1218.01 1046.28,1223.73"/>
    </edge>
    <edge id=":115_6" function="internal">
        <lane id=":115_6_0" index="0" speed="13.90" length="6.84" shape="1040.79,1220.06 1041.91,1217.99 1042.17,1216.39 1041.58,1215.26 1040.13,1214.61"/>
    </edge>
    <edge id=":115_7" function="internal">
        <lane id=":115_7_0" index="0" speed="13.90" length="21.37" shape="1043.54,1221.89 1047.77,1217.08 1051.79,1215.64 1055.60,1217.57 1059.20,1222.88"/>
    </edge>
    <edge id=":118_0" function="internal">
        <lane id=":118_0_0" index="0" speed="13.90" length="22.03" shape="660.05,1208.85 653.97,1210.59 649.06,1211.14 644.04,1210.94 637.66,1210.44"/>
        <lane id=":118_0_1" index="1" speed="13.90" length="22.03" shape="658.96,1205.74 653.09,1207.44 648.62,1207.93 644.06,1207.67 637.89,1207.15"/>
    </edge>
    <edge id=":118_2" function="internal">
        <lane id=":118_2_0" index="0" speed="13.90" length="5.39" shape="658.96,1205.74 655.09,1206.10 653.70,1205.52"/>
    </edge>
    <edge id=":118_8" function="internal">
        <lane id=":118_8_0" index="0" speed="13.90" length="14.87" shape="653.70,1205.52 651.20,1204.47 647.29,1200.86 643.37,1195.27"/>
    </edge>
    <edge id=":118_3" function="internal">
        <lane id=":118_3_0" index="0" speed="13.90" length="11.35" shape="649.04,1191.89 651.43,1195.57 653.52,1198.07 655.31,1199.38 656.78,1199.51"/>
    </edge>
    <edge id=":118_4" function="internal">
        <lane id=":118_4_0" index="0" speed="13.90" length="22.70" shape="646.20,1193.58 648.98,1199.95 648.51,1204.33 644.82,1206.73 637.89,1207.15"/>
    </edge>
    <edge id=":118_5" function="internal">
        <lane id=":118_5_0" index="0" speed="13.90" length="6.03" shape="638.33,1200.56 640.17,1200.45 641.15,1199.82 641.27,1198.65 640.54,1196.96"/>
    </edge>
    <edge id=":118_6" function="internal">
        <lane id=":118_6_0" index="0" speed="13.90" length="19.40" shape="638.33,1200.56 643.87,1201.09 647.74,1201.41 651.52,1201.05 656.78,1199.51"/>
        <lane id=":118_6_1" index="1" speed="13.90" length="19.40" shape="638.11,1203.86 644.05,1204.40 648.19,1204.71 652.23,1204.29 657.87,1202.62"/>
    </edge>
    <edge id=":1198_0" function="internal">
        <lane id=":1198_0_0" index="0" speed="13.90" length="0.87" shape="604.55,1825.91 604.36,1824.92"/>
        <lane id=":1198_0_1" index="1" speed="13.90" length="0.87" shape="607.76,1825.15 607.63,1824.43"/>
    </edge>
    <edge id=":1198_2" function="internal">
        <lane id=":1198_2_0" index="0" speed="13.90" length="0.29" shape="614.15,1823.47 614.18,1823.61"/>
        <lane id=":1198_2_1" index="1" speed="13.90" length="0.29" shape="610.89,1823.95 610.97,1824.38"/>
    </edge>
    <edge id=":12_0" function="internal">
        <lane id=":12_0_0" index="0" speed="13.90" length="25.54" shape="961.40,1366.05 956.98,1360.92 952.36,1357.20 947.12,1354.29 940.82,1351.61"/>
    </edge>
    <edge id=":12_1" function="internal">
        <lane id=":12_1_0" index="0" speed="13.90" length="29.64" shape="961.40,1366.05 957.21,1359.82 953.52,1353.26 950.28,1346.46 947.42,1339.50"/>
        <lane id=":12_1_1" index="1" speed="13.90" length="29.64" shape="964.05,1364.08 959.92,1357.98 956.39,1351.69 953.30,1345.15 950.50,1338.32"/>
    </edge>
    <edge id=":12_3" function="internal">
        <lane id=":12_3_0" index="0" speed="13.90" length="8.61" shape="964.05,1364.08 961.10,1358.39 960.84,1356.20"/>
    </edge>
    <edge id=":12_4" function="internal">
        <lane id=":12_4_0" index="0" speed="13.90" length="7.51" shape="964.05,1364.08 961.26,1358.56 961.47,1357.25"/>
    </edge>
    <edge id=":12_24" function="internal">
        <lane id=":12_24_0" index="0" speed="13.90" length="18.65" shape="960.84,1356.20 960.38,1352.26 961.87,1345.69 965.59,1338.67"/>
    </edge>
    <edge id=":12_25" function="internal">
        <lane id=":12_25_0" index="0" speed="13.90" length="16.19" shape="961.47,1357.25 961.94,1354.23 966.12,1351.07 973.77,1349.10"/>
    </edge>
    <edge id=":12_5" function="internal">
        <lane id=":12_5_0" index="0" speed="13.90" length="8.68" shape="974.73,1355.63 971.44,1356.35 969.45,1357.34 968.75,1358.60 969.35,1360.14"/>
    </edge>
    <edge id=":12_6" function="internal">
        <lane id=":12_6_0" index="0" speed="13.90" length="33.58" shape="974.73,1355.63 966.56,1356.14 957.55,1355.55 948.65,1354.00 940.82,1351.61"/>
        <lane id=":12_6_1" index="1" speed="13.90" length="33.58" shape="974.25,1352.37 966.35,1352.90 957.92,1352.39 949.60,1350.90 942.04,1348.54"/>
    </edge>
    <edge id=":12_8" function="internal">
        <lane id=":12_8_0" index="0" speed="13.90" length="30.16" shape="974.25,1352.37 966.25,1352.45 959.63,1350.13 954.38,1345.42 950.50,1338.32"/>
    </edge>
    <edge id=":12_9" function="internal">
        <lane id=":12_9_0" index="0" speed="13.90" length="25.19" shape="974.25,1352.37 966.31,1352.60 962.22,1350.39 961.98,1345.75 965.59,1338.67"/>
    </edge>
    <edge id=":12_10" function="internal">
        <lane id=":12_10_0" index="0" speed="13.90" length="6.44" shape="971.08,1342.34 970.16,1344.15 970.22,1345.33 971.26,1345.90 973.29,1345.84"/>
    </edge>
    <edge id=":12_11" function="internal">
        <lane id=":12_11_0" index="0" speed="13.90" length="21.15" shape="971.08,1342.34 968.32,1347.43 967.11,1352.09 967.45,1356.33 969.35,1360.14"/>
        <lane id=":12_11_1" index="1" speed="13.90" length="21.15" shape="968.33,1340.51 965.09,1346.56 963.74,1352.17 964.28,1357.36 966.70,1362.11"/>
    </edge>
    <edge id=":12_13" function="internal">
        <lane id=":12_13_0" index="0" speed="13.90" length="30.10" shape="968.33,1340.51 963.03,1346.49 956.88,1349.82 949.89,1350.51 942.04,1348.54"/>
    </edge>
    <edge id=":12_14" function="internal">
        <lane id=":12_14_0" index="0" speed="13.90" length="18.20" shape="968.33,1340.51 963.18,1346.43 958.48,1348.04 954.26,1345.33 954.08,1345.00"/>
    </edge>
    <edge id=":12_26" function="internal">
        <lane id=":12_26_0" index="0" speed="13.90" length="7.58" shape="954.08,1345.00 950.50,1338.32"/>
    </edge>
    <edge id=":12_15" function="internal">
        <lane id=":12_15_0" index="0" speed="13.90" length="8.96" shape="956.66,1335.95 957.98,1338.42 959.45,1339.39 961.07,1338.87 962.84,1336.84"/>
    </edge>
    <edge id=":12_16" function="internal">
        <lane id=":12_16_0" index="0" speed="13.90" length="21.15" shape="956.66,1335.95 959.38,1340.95 963.06,1344.26 967.70,1345.89 973.29,1345.84"/>
    </edge>
    <edge id=":12_17" function="internal">
        <lane id=":12_17_0" index="0" speed="13.90" length="27.85" shape="956.66,1335.95 959.32,1342.54 962.12,1348.54 965.36,1354.29 969.35,1360.14"/>
        <lane id=":12_17_1" index="1" speed="13.90" length="27.85" shape="953.58,1337.13 956.31,1343.85 959.25,1350.11 962.64,1356.13 966.70,1362.11"/>
    </edge>
    <edge id=":12_19" function="internal">
        <lane id=":12_19_0" index="0" speed="13.90" length="8.91" shape="953.58,1337.13 955.58,1344.93 955.35,1345.76"/>
    </edge>
    <edge id=":12_27" function="internal">
        <lane id=":12_27_0" index="0" speed="13.90" length="16.53" shape="955.35,1345.76 954.33,1349.43 949.81,1350.63 942.04,1348.54"/>
    </edge>
    <edge id=":12_20" function="internal">
        <lane id=":12_20_0" index="0" speed="13.90" length="6.48" shape="944.48,1342.41 946.46,1342.94 947.61,1342.63 947.93,1341.49 947.42,1339.50"/>
    </edge>
    <edge id=":12_21" function="internal">
        <lane id=":12_21_0" index="0" speed="13.90" length="21.01" shape="944.48,1342.41 949.97,1343.79 954.86,1343.32 959.15,1341.00 962.84,1336.84"/>
    </edge>
    <edge id=":12_22" function="internal">
        <lane id=":12_22_0" index="0" speed="13.90" length="31.03" shape="943.26,1345.47 950.56,1347.81 958.29,1349.22 966.14,1349.67 973.77,1349.10"/>
    </edge>
    <edge id=":12_23" function="internal">
        <lane id=":12_23_0" index="0" speed="13.90" length="29.11" shape="943.26,1345.47 950.01,1348.50 956.23,1352.17 961.83,1356.64 966.70,1362.11"/>
    </edge>
    <edge id=":122_0" function="internal">
        <lane id=":122_0_0" index="0" speed="13.90" length="4.79" shape="1330.90,1322.86 1329.62,1322.85 1328.57,1323.22 1327.76,1323.98 1327.19,1325.13"/>
    </edge>
    <edge id=":122_1" function="internal">
        <lane id=":122_1_0" index="0" speed="13.90" length="13.47" shape="1331.39,1319.59 1327.78,1318.64 1324.98,1316.95 1323.01,1314.53 1321.84,1311.39"/>
    </edge>
    <edge id=":122_2" function="internal">
        <lane id=":122_2_0" index="0" speed="13.90" length="5.43" shape="1328.29,1310.00 1328.75,1311.14 1329.58,1312.04 1330.78,1312.68 1332.35,1313.06"/>
    </edge>
    <edge id=":122_3" function="internal">
        <lane id=":122_3_0" index="0" speed="13.90" length="14.61" shape="1328.29,1310.00 1329.14,1314.48 1329.25,1317.65 1328.61,1320.78 1327.19,1325.13"/>
        <lane id=":122_3_1" index="1" speed="13.90" length="14.61" shape="1325.07,1310.69 1325.81,1314.66 1325.90,1317.46 1325.32,1320.23 1324.06,1324.08"/>
    </edge>
    <edge id=":122_5" function="internal">
        <lane id=":122_5_0" index="0" speed="13.90" length="11.03" shape="1317.81,1321.97 1318.75,1319.12 1319.20,1317.08 1319.15,1315.01 1318.62,1312.08"/>
        <lane id=":122_5_1" index="1" speed="13.90" length="11.03" shape="1320.94,1323.02 1322.04,1319.68 1322.55,1317.27 1322.48,1314.83 1321.84,1311.39"/>
    </edge>
    <edge id=":122_7" function="internal">
        <lane id=":122_7_0" index="0" speed="13.90" length="5.82" shape="1320.94,1323.02 1322.62,1319.64 1324.10,1318.24"/>
    </edge>
    <edge id=":122_8" function="internal">
        <lane id=":122_8_0" index="0" speed="13.90" length="8.29" shape="1324.10,1318.24 1325.00,1317.39 1328.09,1316.29 1331.87,1316.33"/>
    </edge>
    <edge id=":124_0" function="internal">
        <lane id=":124_0_0" index="0" speed="13.90" length="9.17" shape="1406.09,1610.56 1404.24,1608.80 1402.27,1607.93 1400.19,1607.96 1398.00,1608.88"/>
    </edge>
    <edge id=":124_1" function="internal">
        <lane id=":124_1_0" index="0" speed="13.90" length="19.35" shape="1406.09,1610.56 1393.43,1596.09"/>
        <lane id=":124_1_1" index="1" speed="13.90" length="19.35" shape="1408.65,1608.48 1395.83,1593.82"/>
    </edge>
    <edge id=":124_3" function="internal">
        <lane id=":124_3_0" index="0" speed="13.90" length="6.48" shape="1408.65,1608.48 1405.99,1604.04 1405.88,1602.74"/>
    </edge>
    <edge id=":124_16" function="internal">
        <lane id=":124_16_0" index="0" speed="13.90" length="11.67" shape="1405.88,1602.74 1405.67,1600.15 1407.71,1596.83 1412.08,1594.06"/>
    </edge>
    <edge id=":124_4" function="internal">
        <lane id=":124_4_0" index="0" speed="13.90" length="5.34" shape="1414.78,1600.08 1413.50,1600.89 1412.90,1601.87 1412.99,1603.02 1413.77,1604.32"/>
    </edge>
    <edge id=":124_5" function="internal">
        <lane id=":124_5_0" index="0" speed="13.90" length="19.16" shape="1414.78,1600.08 1398.00,1608.88"/>
        <lane id=":124_5_1" index="1" speed="13.90" length="19.16" shape="1413.43,1597.07 1396.28,1606.06"/>
    </edge>
    <edge id=":124_7" function="internal">
        <lane id=":124_7_0" index="0" speed="13.90" length="6.74" shape="1413.43,1597.07 1408.50,1598.58 1406.92,1598.57"/>
    </edge>
    <edge id=":124_17" function="internal">
        <lane id=":124_17_0" index="0" speed="13.90" length="12.49" shape="1406.92,1598.57 1403.93,1598.55 1399.70,1596.96 1395.83,1593.82"/>
    </edge>
    <edge id=":124_8" function="internal">
        <lane id=":124_8_0" index="0" speed="13.90" length="11.02" shape="1400.62,1589.29 1402.82,1591.06 1405.24,1591.94 1407.87,1591.93 1410.73,1591.05"/>
    </edge>
    <edge id=":124_9" function="internal">
        <lane id=":124_9_0" index="0" speed="13.90" length="19.85" shape="1400.62,1589.29 1413.77,1604.32"/>
        <lane id=":124_9_1" index="1" speed="13.90" length="19.85" shape="1398.23,1591.56 1411.21,1606.40"/>
    </edge>
    <edge id=":124_11" function="internal">
        <lane id=":124_11_0" index="0" speed="13.90" length="7.23" shape="1398.23,1591.56 1401.10,1595.63 1401.47,1597.85"/>
    </edge>
    <edge id=":124_18" function="internal">
        <lane id=":124_18_0" index="0" speed="13.90" length="10.41" shape="1401.47,1597.85 1401.74,1599.41 1400.13,1602.89 1396.28,1606.06"/>
    </edge>
    <edge id=":124_12" function="internal">
        <lane id=":124_12_0" index="0" speed="13.90" length="5.27" shape="1392.85,1600.43 1394.00,1599.48 1394.48,1598.44 1394.29,1597.31 1393.43,1596.09"/>
    </edge>
    <edge id=":124_13" function="internal">
        <lane id=":124_13_0" index="0" speed="13.90" length="19.99" shape="1392.85,1600.43 1410.73,1591.05"/>
        <lane id=":124_13_1" index="1" speed="13.90" length="19.99" shape="1394.56,1603.24 1412.08,1594.06"/>
    </edge>
    <edge id=":124_15" function="internal">
        <lane id=":124_15_0" index="0" speed="13.90" length="7.94" shape="1394.56,1603.24 1399.14,1601.29 1402.10,1601.20"/>
    </edge>
    <edge id=":124_19" function="internal">
        <lane id=":124_19_0" index="0" speed="13.90" length="10.86" shape="1402.10,1601.20 1403.44,1601.16 1407.46,1602.87 1411.21,1606.40"/>
    </edge>
    <edge id=":127_0" function="internal">