<?xml version="1.0" encoding="UTF-8"?>

<!-- generated on Sun Feb 26 11:26:08 2017 by SUMO netgenerate Version 0.28.0
<?xml version="1.0" encoding="UTF-8"?>

<configuration xmlns:xsi="http://www.w3.org/2001/XMLSchema-instance" xsi:noNamespaceSchemaLocation="http://sumo.dlr.de/xsd/netgenerateConfiguration.xsd">

    <grid_network>
        <grid value="true"/>
        <grid.number value="8"/>
        <grid.length value="250"/>
    </grid_network>

    <output>
        <output-file value="grid.net.xml"/>
    </output>

    <tls_building>
        <tls.guess value="true"/>
    </tls_building>

    <processing>
        <no-turnarounds value="true"/>
        <no-left-connections value="true"/>
    </processing>

    <building_defaults>
        <default.lanenumber value="2"/>
    </building_defaults>

</configuration>
-->

<net version="0.27" xmlns:xsi="http://www.w3.org/2001/XMLSchema-instance" xsi:noNamespaceSchemaLocation="http://sumo.dlr.de/xsd/net_file.xsd">

    <location netOffset="0.00,0.00" convBoundary="0.00,0.00,1750.00,1750.00" origBoundary="0.00,0.00,1750.00,1750.00" projParameter="!"/>

    <edge id=":0/0_0" function="internal">
        <lane id=":0/0_0_0" index="0" speed="13.90" length="15.89" shape="-4.95,6.55 -4.23,1.52 -2.08,-2.08 1.52,-4.23 6.55,-4.95"/>
        <lane id=":0/0_0_1" index="1" speed="13.90" length="15.89" shape="-1.65,6.55 -1.14,2.96 0.40,0.40 2.96,-1.14 6.55,-1.65"/>
    </edge>
    <edge id=":0/0_2" function="internal">
        <lane id=":0/0_2_0" index="0" speed="13.90" length="5.24" shape="6.55,4.95 5.85,5.05 5.35,5.35 5.05,5.85 4.95,6.55"/>
        <lane id=":0/0_2_1" index="1" speed="13.90" length="5.24" shape="6.55,1.65 4.41,1.96 2.87,2.87 1.96,4.41 1.65,6.55"/>
    </edge>
    <edge id=":0/1_0" function="internal">
        <lane id=":0/1_0_0" index="0" speed="13.90" length="16.10" shape="-4.95,258.05 -4.95,241.95"/>
        <lane id=":0/1_0_1" index="1" speed="13.90" length="16.10" shape="-1.65,258.05 -1.65,241.95"/>
    </edge>
    <edge id=":0/1_2" function="internal">
        <lane id=":0/1_2_0" index="0" speed="13.90" length="7.66" shape="8.05,254.95 6.69,255.14 5.73,255.72 5.14,256.69 4.95,258.05"/>
        <lane id=":0/1_2_1" index="1" speed="13.90" length="7.66" shape="8.05,251.65 5.25,252.05 3.25,253.25 2.05,255.25 1.65,258.05"/>
    </edge>
    <edge id=":0/1_4" function="internal">
        <lane id=":0/1_4_0" index="0" speed="13.90" length="6.42" shape="4.95,241.95 5.14,243.31 5.72,244.28 6.69,244.86 8.05,245.05"/>
        <lane id=":0/1_4_1" index="1" speed="13.90" length="6.42" shape="4.95,241.95 5.14,244.75 5.72,246.75 6.69,247.95 8.05,248.35"/>
    </edge>
    <edge id=":0/1_6" function="internal">
        <lane id=":0/1_6_0" index="0" speed="13.90" length="16.10" shape="4.95,241.95 4.95,258.05"/>
        <lane id=":0/1_6_1" index="1" speed="13.90" length="16.10" shape="1.65,241.95 1.65,258.05"/>
    </edge>
    <edge id=":0/2_0" function="internal">
        <lane id=":0/2_0_0" index="0" speed="13.90" length="16.10" shape="-4.95,508.05 -4.95,491.95"/>
        <lane id=":0/2_0_1" index="1" speed="13.90" length="16.10" shape="-1.65,508.05 -1.65,491.95"/>
    </edge>
    <edge id=":0/2_2" function="internal">
        <lane id=":0/2_2_0" index="0" speed="13.90" length="7.66" shape="8.05,504.95 6.69,505.14 5.72,505.72 5.14,506.69 4.95,508.05"/>
        <lane id=":0/2_2_1" index="1" speed="13.90" length="7.66" shape="8.05,501.65 5.25,502.05 3.25,503.25 2.05,505.25 1.65,508.05"/>
    </edge>
    <edge id=":0/2_4" function="internal">
        <lane id=":0/2_4_0" index="0" speed="13.90" length="6.42" shape="4.95,491.95 5.14,493.31 5.72,494.27 6.69,494.86 8.05,495.05"/>
        <lane id=":0/2_4_1" index="1" speed="13.90" length="6.42" shape="4.95,491.95 5.14,494.75 5.72,496.75 6.69,497.95 8.05,498.35"/>
    </edge>
    <edge id=":0/2_6" function="internal">
        <lane id=":0/2_6_0" index="0" speed="13.90" length="16.10" shape="4.95,491.95 4.95,508.05"/>
        <lane id=":0/2_6_1" index="1" speed="13.90" length="16.10" shape="1.65,491.95 1.65,508.05"/>
    </edge>
    <edge id=":0/3_0" function="internal">
        <lane id=":0/3_0_0" index="0" speed="13.90" length="16.10" shape="-4.95,758.05 -4.95,741.95"/>
        <lane id=":0/3_0_1" index="1" speed="13.90" length="16.10" shape="-1.65,758.05 -1.65,741.95"/>
    </edge>
    <edge id=":0/3_2" function="internal">
        <lane id=":0/3_2_0" index="0" speed="13.90" length="7.66" shape="8.05,754.95 6.69,755.14 5.73,755.73 5.14,756.69 4.95,758.05"/>
        <lane id=":0/3_2_1" index="1" speed="13.90" length="7.66" shape="8.05,751.65 5.25,752.05 3.25,753.25 2.05,755.25 1.65,758.05"/>
    </edge>
    <edge id=":0/3_4" function="internal">
        <lane id=":0/3_4_0" index="0" speed="13.90" length="6.42" shape="4.95,741.95 5.14,743.31 5.72,744.27 6.69,744.86 8.05,745.05"/>
        <lane id=":0/3_4_1" index="1" speed="13.90" length="6.42" shape="4.95,741.95 5.14,744.75 5.72,746.75 6.69,747.95 8.05,748.35"/>
    </edge>
    <edge id=":0/3_6" function="internal">
        <lane id=":0/3_6_0" index="0" speed="13.90" length="16.10" shape="4.95,741.95 4.95,758.05"/>
        <lane id=":0/3_6_1" index="1" speed="13.90" length="16.10" shape="1.65,741.95 1.65,758.05"/>
    </edge>
    <edge id=":0/4_0" function="internal">
        <lane id=":0/4_0_0" index="0" speed="13.90" length="16.10" shape="-4.95,1008.05 -4.95,991.95"/>
        <lane id=":0/4_0_1" index="1" speed="13.90" length="16.10" shape="-1.65,1008.05 -1.65,991.95"/>
    </edge>
    <edge id=":0/4_2" function="internal">
        <lane id=":0/4_2_0" index="0" speed="13.90" length="7.66" shape="8.05,1004.95 6.69,1005.14 5.73,1005.73 5.14,1006.69 4.95,1008.05"/>
        <lane id=":0/4_2_1" index="1" speed="13.90" length="7.66" shape="8.05,1001.65 5.25,1002.05 3.25,1003.25 2.05,1005.25 1.65,1008.05"/>
    </edge>
    <edge id=":0/4_4" function="internal">
        <lane id=":0/4_4_0" index="0" speed="13.90" length="6.42" shape="4.95,991.95 5.14,993.31 5.72,994.27 6.69,994.86 8.05,995.05"/>
        <lane id=":0/4_4_1" index="1" speed="13.90" length="6.42" shape="4.95,991.95 5.14,994.75 5.72,996.75 6.69,997.95 8.05,998.35"/>
    </edge>
    <edge id=":0/4_6" function="internal">
        <lane id=":0/4_6_0" index="0" speed="13.90" length="16.10" shape="4.95,991.95 4.95,1008.05"/>
        <lane id=":0/4_6_1" index="1" speed="13.90" length="16.10" shape="1.65,991.95 1.65,1008.05"/>
    </edge>
    <edge id=":0/5_0" function="internal">
        <lane id=":0/5_0_0" index="0" speed="13.90" length="16.10" shape="-4.95,1258.05 -4.95,1241.95"/>
        <lane id=":0/5_0_1" index="1" speed="13.90" length="16.10" shape="-1.65,1258.05 -1.65,1241.95"/>
    </edge>
    <edge id=":0/5_2" function="internal">
        <lane id=":0/5_2_0" index="0" speed="13.90" length="7.66" shape="8.05,1254.95 6.69,1255.14 5.73,1255.73 5.14,1256.69 4.95,1258.05"/>
        <lane id=":0/5_2_1" index="1" speed="13.90" length="7.66" shape="8.05,1251.65 5.25,1252.05 3.25,1253.25 2.05,1255.25 1.65,1258.05"/>
    </edge>
    <edge id=":0/5_4" function="internal">
        <lane id=":0/5_4_0" index="0" speed="13.90" length="6.42" shape="4.95,1241.95 5.14,1243.31 5.72,1244.28 6.69,1244.86 8.05,1245.05"/>
        <lane id=":0/5_4_1" index="1" speed="13.90" length="6.42" shape="4.95,1241.95 5.14,1244.75 5.72,1246.75 6.69,1247.95 8.05,1248.35"/>
    </edge>
    <edge id=":0/5_6" function="internal">
        <lane id=":0/5_6_0" index="0" speed="13.90" length="16.10" shape="4.95,1241.95 4.95,1258.05"/>
        <lane id=":0/5_6_1" index="1" speed="13.90" length="16.10" shape="1.65,1241.95 1.65,1258.05"/>
    </edge>
    <edge id=":0/6_0" function="internal">
        <lane id=":0/6_0_0" index="0" speed="13.90" length="16.10" shape="-4.95,1508.05 -4.95,1491.95"/>
        <lane id=":0/6_0_1" index="1" speed="13.90" length="16.10" shape="-1.65,1508.05 -1.65,1491.95"/>
    </edge>
    <edge id=":0/6_2" function="internal">
        <lane id=":0/6_2_0" index="0" speed="13.90" length="7.66" shape="8.05,1504.95 6.69,1505.14 5.72,1505.73 5.14,1506.69 4.95,1508.05"/>
        <lane id=":0/6_2_1" index="1" speed="13.90" length="7.66" shape="8.05,1501.65 5.25,1502.05 3.25,1503.25 2.05,1505.25 1.65,1508.05"/>
    </edge>
    <edge id=":0/6_4" function="internal">
        <lane id=":0/6_4_0" index="0" speed="13.90" length="6.42" shape="4.95,1491.95 5.14,1493.31 5.72,1494.28 6.69,1494.86 8.05,1495.05"/>
        <lane id=":0/6_4_1" index="1" speed="13.90" length="6.42" shape="4.95,1491.95 5.14,1494.75 5.72,1496.75 6.69,1497.95 8.05,1498.35"/>
    </edge>
    <edge id=":0/6_6" function="internal">
        <lane id=":0/6_6_0" index="0" speed="13.90" length="16.10" shape="4.95,1491.95 4.95,1508.05"/>
        <lane id=":0/6_6_1" index="1" speed="13.90" length="16.10" shape="1.65,1491.95 1.65,1508.05"/>
    </edge>
    <edge id=":0/7_0" function="internal">
        <lane id=":0/7_0_0" index="0" speed="13.90" length="15.89" shape="6.55,1754.95 1.52,1754.23 -2.07,1752.08 -4.23,1748.48 -4.95,1743.45"/>
        <lane id=":0/7_0_1" index="1" speed="13.90" length="15.89" shape="6.55,1751.65 2.96,1751.14 0.40,1749.60 -1.14,1747.04 -1.65,1743.45"/>
    </edge>
    <edge id=":0/7_2" function="internal">
        <lane id=":0/7_2_0" index="0" speed="13.90" length="5.24" shape="4.95,1743.45 5.05,1744.15 5.35,1744.65 5.85,1744.95 6.55,1745.05"/>
        <lane id=":0/7_2_1" index="1" speed="13.90" length="5.24" shape="1.65,1743.45 1.96,1745.59 2.88,1747.12 4.41,1748.04 6.55,1748.35"/>
    </edge>
    <edge id=":1/0_0" function="internal">
        <lane id=":1/0_0_0" index="0" speed="13.90" length="7.66" shape="245.05,8.05 244.86,6.69 244.28,5.73 243.31,5.14 241.95,4.95"/>
        <lane id=":1/0_0_1" index="1" speed="13.90" length="7.66" shape="248.35,8.05 247.95,5.25 246.75,3.25 244.75,2.05 241.95,1.65"/>
    </edge>
    <edge id=":1/0_2" function="internal">
        <lane id=":1/0_2_0" index="0" speed="13.90" length="6.42" shape="258.05,4.95 256.69,5.14 255.73,5.72 255.14,6.69 254.95,8.05"/>
        <lane id=":1/0_2_1" index="1" speed="13.90" length="6.42" shape="258.05,4.95 255.25,5.14 253.25,5.72 252.05,6.69 251.65,8.05"/>
    </edge>
    <edge id=":1/0_4" function="internal">
        <lane id=":1/0_4_0" index="0" speed="13.90" length="16.10" shape="258.05,4.95 241.95,4.95"/>
        <lane id=":1/0_4_1" index="1" speed="13.90" length="16.10" shape="258.05,1.65 241.95,1.65"/>
    </edge>
    <edge id=":1/0_6" function="internal">
        <lane id=":1/0_6_0" index="0" speed="13.90" length="16.10" shape="241.95,-4.95 258.05,-4.95"/>
        <lane id=":1/0_6_1" index="1" speed="13.90" length="16.10" shape="241.95,-1.65 258.05,-1.65"/>
    </edge>
    <edge id=":1/1_0" function="internal">
        <lane id=":1/1_0_0" index="0" speed="13.90" length="5.00" shape="245.05,258.05 244.86,256.69 244.28,255.73 243.31,255.14 241.95,254.95"/>
    </edge>
    <edge id=":1/1_1" function="internal">
        <lane id=":1/1_1_0" index="0" speed="13.90" length="16.10" shape="245.05,258.05 245.05,241.95"/>
        <lane id=":1/1_1_1" index="1" speed="13.90" length="16.10" shape="248.35,258.05 248.35,241.95"/>
    </edge>
    <edge id=":1/1_3" function="internal">
        <lane id=":1/1_3_0" index="0" speed="13.90" length="7.66" shape="258.05,254.95 256.69,255.14 255.73,255.72 255.14,256.69 254.95,258.05"/>
        <lane id=":1/1_3_1" index="1" speed="13.90" length="7.66" shape="258.05,251.65 255.25,252.05 253.25,253.25 252.05,255.25 251.65,258.05"/>
    </edge>
    <edge id=":1/1_5" function="internal">
        <lane id=":1/1_5_0" index="0" speed="13.90" length="16.10" shape="258.05,251.65 241.95,251.65"/>
    </edge>
    <edge id=":1/1_6" function="internal">
        <lane id=":1/1_6_0" index="0" speed="13.90" length="5.00" shape="254.95,241.95 255.14,243.31 255.72,244.28 256.69,244.86 258.05,245.05"/>
    </edge>
    <edge id=":1/1_7" function="internal">
        <lane id=":1/1_7_0" index="0" speed="13.90" length="16.10" shape="254.95,241.95 254.95,258.05"/>
        <lane id=":1/1_7_1" index="1" speed="13.90" length="16.10" shape="251.65,241.95 251.65,258.05"/>
    </edge>
    <edge id=":1/1_9" function="internal">
        <lane id=":1/1_9_0" index="0" speed="13.90" length="7.66" shape="241.95,245.05 243.31,244.86 244.28,244.28 244.86,243.31 245.05,241.95"/>
        <lane id=":1/1_9_1" index="1" speed="13.90" length="7.66" shape="241.95,248.35 244.75,247.95 246.75,246.75 247.95,244.75 248.35,241.95"/>
    </edge>
    <edge id=":1/1_11" function="internal">
        <lane id=":1/1_11_0" index="0" speed="13.90" length="16.10" shape="241.95,248.35 258.05,248.35"/>
    </edge>
    <edge id=":1/2_0" function="internal">
        <lane id=":1/2_0_0" index="0" speed="13.90" length="5.00" shape="245.05,508.05 244.86,506.69 244.28,505.73 243.31,505.14 241.95,504.95"/>
    </edge>
    <edge id=":1/2_1" function="internal">
        <lane id=":1/2_1_0" index="0" speed="13.90" length="16.10" shape="245.05,508.05 245.05,491.95"/>
        <lane id=":1/2_1_1" index="1" speed="13.90" length="16.10" shape="248.35,508.05 248.35,491.95"/>
    </edge>
    <edge id=":1/2_3" function="internal">
        <lane id=":1/2_3_0" index="0" speed="13.90" length="7.66" shape="258.05,504.95 256.69,505.14 255.73,505.72 255.14,506.69 254.95,508.05"/>
        <lane id=":1/2_3_1" index="1" speed="13.90" length="7.66" shape="258.05,501.65 255.25,502.05 253.25,503.25 252.05,505.25 251.65,508.05"/>
    </edge>
    <edge id=":1/2_5" function="internal">
        <lane id=":1/2_5_0" index="0" speed="13.90" length="16.10" shape="258.05,501.65 241.95,501.65"/>
    </edge>
    <edge id=":1/2_6" function="internal">
        <lane id=":1/2_6_0" index="0" speed="13.90" length="5.00" shape="254.95,491.95 255.14,493.31 255.72,494.27 256.69,494.86 258.05,495.05"/>
    </edge>
    <edge id=":1/2_7" function="internal">
        <lane id=":1/2_7_0" index="0" speed="13.90" length="16.10" shape="254.95,491.95 254.95,508.05"/>
        <lane id=":1/2_7_1" index="1" speed="13.90" length="16.10" shape="251.65,491.95 251.65,508.05"/>
    </edge>
    <edge id=":1/2_9" function="internal">
        <lane id=":1/2_9_0" index="0" speed="13.90" length="7.66" shape="241.95,495.05 243.31,494.86 244.28,494.28 244.86,493.31 245.05,491.95"/>
        <lane id=":1/2_9_1" index="1" speed="13.90" length="7.66" shape="241.95,498.35 244.75,497.95 246.75,496.75 247.95,494.75 248.35,491.95"/>
    </edge>
    <edge id=":1/2_11" function="internal">
        <lane id=":1/2_11_0" index="0" speed="13.90" length="16.10" shape="241.95,498.35 258.05,498.35"/>
    </edge>
    <edge id=":1/3_0" function="internal">
        <lane id=":1/3_0_0" index="0" speed="13.90" length="5.00" shape="245.05,758.05 244.86,756.69 244.28,755.73 243.31,755.14 241.95,754.95"/>
    </edge>
    <edge id=":1/3_1" function="internal">
        <lane id=":1/3_1_0" index="0" speed="13.90" length="16.10" shape="245.05,758.05 245.05,741.95"/>
        <lane id=":1/3_1_1" index="1" speed="13.90" length="16.10" shape="248.35,758.05 248.35,741.95"/>
    </edge>
    <edge id=":1/3_3" function="internal">
        <lane id=":1/3_3_0" index="0" speed="13.90" length="7.66" shape="258.05,754.95 256.69,755.14 255.73,755.73 255.14,756.69 254.95,758.05"/>
        <lane id=":1/3_3_1" index="1" speed="13.90" length="7.66" shape="258.05,751.65 255.25,752.05 253.25,753.25 252.05,755.25 251.65,758.05"/>
    </edge>
    <edge id=":1/3_5" function="internal">
        <lane id=":1/3_5_0" index="0" speed="13.90" length="16.10" shape="258.05,751.65 241.95,751.65"/>
    </edge>
    <edge id=":1/3_6" function="internal">
        <lane id=":1/3_6_0" index="0" speed="13.90" length="5.00" shape="254.95,741.95 255.14,743.31 255.72,744.27 256.69,744.86 258.05,745.05"/>
    </edge>
    <edge id=":1/3_7" function="internal">
        <lane id=":1/3_7_0" index="0" speed="13.90" length="16.10" shape="254.95,741.95 254.95,758.05"/>
        <lane id=":1/3_7_1" index="1" speed="13.90" length="16.10" shape="251.65,741.95 251.65,758.05"/>
    </edge>
    <edge id=":1/3_9" function="internal">
        <lane id=":1/3_9_0" index="0" speed="13.90" length="7.66" shape="241.95,745.05 243.31,744.86 244.28,744.27 244.86,743.31 245.05,741.95"/>
        <lane id=":1/3_9_1" index="1" speed="13.90" length="7.66" shape="241.95,748.35 244.75,747.95 246.75,746.75 247.95,744.75 248.35,741.95"/>
    </edge>
    <edge id=":1/3_11" function="internal">
        <lane id=":1/3_11_0" index="0" speed="13.90" length="16.10" shape="241.95,748.35 258.05,748.35"/>
    </edge>
    <edge id=":1/4_0" function="internal">
        <lane id=":1/4_0_0" index="0" speed="13.90" length="5.00" shape="245.05,1008.05 244.86,1006.69 244.28,1005.73 243.31,1005.14 241.95,1004.95"/>
    </edge>
    <edge id=":1/4_1" function="internal">
        <lane id=":1/4_1_0" index="0" speed="13.90" length="16.10" shape="245.05,1008.05 245.05,991.95"/>
        <lane id=":1/4_1_1" index="1" speed="13.90" length="16.10" shape="248.35,1008.05 248.35,991.95"/>
    </edge>
    <edge id=":1/4_3" function="internal">
        <lane id=":1/4_3_0" index="0" speed="13.90" length="7.66" shape="258.05,1004.95 256.69,1005.14 255.73,1005.73 255.14,1006.69 254.95,1008.05"/>
        <lane id=":1/4_3_1" index="1" speed="13.90" length="7.66" shape="258.05,1001.65 255.25,1002.05 253.25,1003.25 252.05,1005.25 251.65,1008.05"/>
    </edge>
    <edge id=":1/4_5" function="internal">
        <lane id=":1/4_5_0" index="0" speed="13.90" length="16.10" shape="258.05,1001.65 241.95,1001.65"/>
    </edge>
    <edge id=":1/4_6" function="internal">
        <lane id=":1/4_6_0" index="0" speed="13.90" length="5.00" shape="254.95,991.95 255.14,993.31 255.72,994.27 256.69,994.86 258.05,995.05"/>
    </edge>
    <edge id=":1/4_7" function="internal">
        <lane id=":1/4_7_0" index="0" speed="13.90" length="16.10" shape="254.95,991.95 254.95,1008.05"/>
        <lane id=":1/4_7_1" index="1" speed="13.90" length="16.10" shape="251.65,991.95 251.65,1008.05"/>
    </edge>
    <edge id=":1/4_9" function="internal">
        <lane id=":1/4_9_0" index="0" speed="13.90" length="7.66" shape="241.95,995.05 243.31,994.86 244.28,994.27 244.86,993.31 245.05,991.95"/>
        <lane id=":1/4_9_1" index="1" speed="13.90" length="7.66" shape="241.95,998.35 244.75,997.95 246.75,996.75 247.95,994.75 248.35,991.95"/>
    </edge>
    <edge id=":1/4_11" function="internal">
        <lane id=":1/4_11_0" index="0" speed="13.90" length="16.10" shape="241.95,998.35 258.05,998.35"/>
    </edge>
    <edge id=":1/5_0" function="internal">
        <lane id=":1/5_0_0" index="0" speed="13.90" length="5.00" shape="245.05,1258.05 244.86,1256.69 244.28,1255.72 243.31,1255.14 241.95,1254.95"/>
    </edge>
    <edge id=":1/5_1" function="internal">
        <lane id=":1/5_1_0" index="0" speed="13.90" length="16.10" shape="245.05,1258.05 245.05,1241.95"/>
        <lane id=":1/5_1_1" index="1" speed="13.90" length="16.10" shape="248.35,1258.05 248.35,1241.95"/>
    </edge>
    <edge id=":1/5_3" function="internal">
        <lane id=":1/5_3_0" index="0" speed="13.90" length="7.66" shape="258.05,1254.95 256.69,1255.14 255.73,1255.73 255.14,1256.69 254.95,1258.05"/>
        <lane id=":1/5_3_1" index="1" speed="13.90" length="7.66" shape="258.05,1251.65 255.25,1252.05 253.25,1253.25 252.05,1255.25 251.65,1258.05"/>
    </edge>
    <edge id=":1/5_5" function="internal">
        <lane id=":1/5_5_0" index="0" speed="13.90" length="16.10" shape="258.05,1251.65 241.95,1251.65"/>
    </edge>
    <edge id=":1/5_6" function="internal">
        <lane id=":1/5_6_0" index="0" speed="13.90" length="5.00" shape="254.95,1241.95 255.14,1243.31 255.72,1244.28 256.69,1244.86 258.05,1245.05"/>
    </edge>
    <edge id=":1/5_7" function="internal">
        <lane id=":1/5_7_0" index="0" speed="13.90" length="16.10" shape="254.95,1241.95 254.95,1258.05"/>
        <lane id=":1/5_7_1" index="1" speed="13.90" length="16.10" shape="251.65,1241.95 251.65,1258.05"/>
    </edge>
    <edge id=":1/5_9" function="internal">
        <lane id=":1/5_9_0" index="0" speed="13.90" length="7.66" shape="241.95,1245.05 243.31,1244.86 244.28,1244.27 244.86,1243.31 245.05,1241.95"/>
        <lane id=":1/5_9_1" index="1" speed="13.90" length="7.66" shape="241.95,1248.35 244.75,1247.95 246.75,1246.75 247.95,1244.75 248.35,1241.95"/>
    </edge>
    <edge id=":1/5_11" function="internal">
        <lane id=":1/5_11_0" index="0" speed="13.90" length="16.10" shape="241.95,1248.35 258.05,1248.35"/>
    </edge>
    <edge id=":1/6_0" function="internal">
        <lane id=":1/6_0_0" index="0" speed="13.90" length="5.00" shape="245.05,1508.05 244.86,1506.69 244.28,1505.72 243.31,1505.14 241.95,1504.95"/>
    </edge>
    <edge id=":1/6_1" function="internal">
        <lane id=":1/6_1_0" index="0" speed="13.90" length="16.10" shape="245.05,1508.05 245.05,1491.95"/>
        <lane id=":1/6_1_1" index="1" speed="13.90" length="16.10" shape="248.35,1508.05 248.35,1491.95"/>
    </edge>
    <edge id=":1/6_3" function="internal">
        <lane id=":1/6_3_0" index="0" speed="13.90" length="7.66" shape="258.05,1504.95 256.69,1505.14 255.73,1505.73 255.14,1506.69 254.95,1508.05"/>
        <lane id=":1/6_3_1" index="1" speed="13.90" length="7.66" shape="258.05,1501.65 255.25,1502.05 253.25,1503.25 252.05,1505.25 251.65,1508.05"/>
    </edge>
    <edge id=":1/6_5" function="internal">
        <lane id=":1/6_5_0" index="0" speed="13.90" length="16.10" shape="258.05,1501.65 241.95,1501.65"/>
    </edge>
    <edge id=":1/6_6" function="internal">
        <lane id=":1/6_6_0" index="0" speed="13.90" length="5.00" shape="254.95,1491.95 255.14,1493.31 255.72,1494.28 256.69,1494.86 258.05,1495.05"/>
    </edge>
    <edge id=":1/6_7" function="internal">
        <lane id=":1/6_7_0" index="0" speed="13.90" length="16.10" shape="254.95,1491.95 254.95,1508.05"/>
        <lane id=":1/6_7_1" index="1" speed="13.90" length="16.10" shape="251.65,1491.95 251.65,1508.05"/>
    </edge>
    <edge id=":1/6_9" function="internal">
        <lane id=":1/6_9_0" index="0" speed="13.90" length="7.66" shape="241.95,1495.05 243.31,1494.86 244.28,1494.27 244.86,1493.31 245.05,1491.95"/>
        <lane id=":1/6_9_1" index="1" speed="13.90" length="7.66" shape="241.95,1498.35 244.75,1497.95 246.75,1496.75 247.95,1494.75 248.35,1491.95"/>
    </edge>
    <edge id=":1/6_11" function="internal">
        <lane id=":1/6_11_0" index="0" speed="13.90" length="16.10" shape="241.95,1498.35 258.05,1498.35"/>
    </edge>
    <edge id=":1/7_0" function="internal">
        <lane id=":1/7_0_0" index="0" speed="13.90" length="16.10" shape="258.05,1754.95 241.95,1754.95"/>
        <lane id=":1/7_0_1" index="1" speed="13.90" length="16.10" shape="258.05,1751.65 241.95,1751.65"/>
    </edge>
    <edge id=":1/7_2" function="internal">
        <lane id=":1/7_2_0" index="0" speed="13.90" length="7.66" shape="254.95,1741.95 255.14,1743.31 255.72,1744.28 256.69,1744.86 258.05,1745.05"/>
        <lane id=":1/7_2_1" index="1" speed="13.90" length="7.66" shape="251.65,1741.95 252.05,1744.75 253.25,1746.75 255.25,1747.95 258.05,1748.35"/>
    </edge>
    <edge id=":1/7_4" function="internal">
        <lane id=":1/7_4_0" index="0" speed="13.90" length="6.42" shape="241.95,1745.05 243.31,1744.86 244.28,1744.27 244.86,1743.31 245.05,1741.95"/>
        <lane id=":1/7_4_1" index="1" speed="13.90" length="6.42" shape="241.95,1745.05 244.75,1744.86 246.75,1744.27 247.95,1743.31 248.35,1741.95"/>
    </edge>
    <edge id=":1/7_6" function="internal">
        <lane id=":1/7_6_0" index="0" speed="13.90" length="16.10" shape="241.95,1745.05 258.05,1745.05"/>
        <lane id=":1/7_6_1" index="1" speed="13.90" length="16.10" shape="241.95,1748.35 258.05,1748.35"/>
    </edge>
    <edge id=":2/0_0" function="internal">
        <lane id=":2/0_0_0" index="0" speed="13.90" length="7.66" shape="495.05,8.05 494.86,6.69 494.28,5.72 493.31,5.14 491.95,4.95"/>
        <lane id=":2/0_0_1" index="1" speed="13.90" length="7.66" shape="498.35,8.05 497.95,5.25 496.75,3.25 494.75,2.05 491.95,1.65"/>
    </edge>
    <edge id=":2/0_2" function="internal">
        <lane id=":2/0_2_0" index="0" speed="13.90" length="6.42" shape="508.05,4.95 506.69,5.14 505.73,5.72 505.14,6.69 504.95,8.05"/>
        <lane id=":2/0_2_1" index="1" speed="13.90" length="6.42" shape="508.05,4.95 505.25,5.14 503.25,5.72 502.05,6.69 501.65,8.05"/>
    </edge>
    <edge id=":2/0_4" function="internal">
        <lane id=":2/0_4_0" index="0" speed="13.90" length="16.10" shape="508.05,4.95 491.95,4.95"/>
        <lane id=":2/0_4_1" index="1" speed="13.90" length="16.10" shape="508.05,1.65 491.95,1.65"/>
    </edge>
    <edge id=":2/0_6" function="internal">
        <lane id=":2/0_6_0" index="0" speed="13.90" length="16.10" shape="491.95,-4.95 508.05,-4.95"/>
        <lane id=":2/0_6_1" index="1" speed="13.90" length="16.10" shape="491.95,-1.65 508.05,-1.65"/>
    </edge>
    <edge id=":2/1_0" function="internal">
        <lane id=":2/1_0_0" index="0" speed="13.90" length="5.00" shape="495.05,258.05 494.86,256.69 494.28,255.73 493.31,255.14 491.95,254.95"/>
    </edge>
    <edge id=":2/1_1" function="internal">
        <lane id=":2/1_1_0" index="0" speed="13.90" length="16.10" shape="495.05,258.05 495.05,241.95"/>
        <lane id=":2/1_1_1" index="1" speed="13.90" length="16.10" shape="498.35,258.05 498.35,241.95"/>
    </edge>
    <edge id=":2/1_3" function="internal">
        <lane id=":2/1_3_0" index="0" speed="13.90" length="7.66" shape="508.05,254.95 506.69,255.14 505.73,255.72 505.14,256.69 504.95,258.05"/>
        <lane id=":2/1_3_1" index="1" speed="13.90" length="7.66" shape="508.05,251.65 505.25,252.05 503.25,253.25 502.05,255.25 501.65,258.05"/>
    </edge>
    <edge id=":2/1_5" function="internal">
        <lane id=":2/1_5_0" index="0" speed="13.90" length="16.10" shape="508.05,251.65 491.95,251.65"/>
    </edge>
    <edge id=":2/1_6" function="internal">
        <lane id=":2/1_6_0" index="0" speed="13.90" length="5.00" shape="504.95,241.95 505.14,243.31 505.72,244.28 506.69,244.86 508.05,245.05"/>
    </edge>
    <edge id=":2/1_7" function="internal">
        <lane id=":2/1_7_0" index="0" speed="13.90" length="16.10" shape="504.95,241.95 504.95,258.05"/>
        <lane id=":2/1_7_1" index="1" speed="13.90" length="16.10" shape="501.65,241.95 501.65,258.05"/>
    </edge>
    <edge id=":2/1_9" function="internal">
        <lane id=":2/1_9_0" index="0" speed="13.90" length="7.66" shape="491.95,245.05 493.31,244.86 494.27,244.28 494.86,243.31 495.05,241.95"/>
        <lane id=":2/1_9_1" index="1" speed="13.90" length="7.66" shape="491.95,248.35 494.75,247.95 496.75,246.75 497.95,244.75 498.35,241.95"/>
    </edge>
    <edge id=":2/1_11" function="internal">
        <lane id=":2/1_11_0" index="0" speed="13.90" length="16.10" shape="491.95,248.35 508.05,248.35"/>
    </edge>
    <edge id=":2/2_0" function="internal">
        <lane id=":2/2_0_0" index="0" speed="13.90" length="5.00" shape="495.05,508.05 494.86,506.69 494.28,505.73 493.31,505.14 491.95,504.95"/>
    </edge>
    <edge id=":2/2_1" function="internal">
        <lane id=":2/2_1_0" index="0" speed="13.90" length="16.10" shape="495.05,508.05 495.05,491.95"/>
        <lane id=":2/2_1_1" index="1" speed="13.90" length="16.10" shape="498.35,508.05 498.35,491.95"/>
    </edge>
    <edge id=":2/2_3" function="internal">
        <lane id=":2/2_3_0" index="0" speed="13.90" length="7.66" shape="508.05,504.95 506.69,505.14 505.73,505.72 505.14,506.69 504.95,508.05"/>
        <lane id=":2/2_3_1" index="1" speed="13.90" length="7.66" shape="508.05,501.65 505.25,502.05 503.25,503.25 502.05,505.25 501.65,508.05"/>
    </edge>
    <edge id=":2/2_5" function="internal">
        <lane id=":2/2_5_0" index="0" speed="13.90" length="16.10" shape="508.05,501.65 491.95,501.65"/>
    </edge>
    <edge id=":2/2_6" function="internal">
        <lane id=":2/2_6_0" index="0" speed="13.90" length="5.00" shape="504.95,491.95 505.14,493.31 505.72,494.27 506.69,494.86 508.05,495.05"/>
    </edge>
    <edge id=":2/2_7" function="internal">
        <lane id=":2/2_7_0" index="0" speed="13.90" length="16.10" shape="504.95,491.95 504.95,508.05"/>
        <lane id=":2/2_7_1" index="1" speed="13.90" length="16.10" shape="501.65,491.95 501.65,508.05"/>
    </edge>
    <edge id=":2/2_9" function="internal">
        <lane id=":2/2_9_0" index="0" speed="13.90" length="7.66" shape="491.95,495.05 493.31,494.86 494.27,494.28 494.86,493.31 495.05,491.95"/>
        <lane id=":2/2_9_1" index="1" speed="13.90" length="7.66" shape="491.95,498.35 494.75,497.95 496.75,496.75 497.95,494.75 498.35,491.95"/>
    </edge>
    <edge id=":2/2_11" function="internal">
        <lane id=":2/2_11_0" index="0" speed="13.90" length="16.10" shape="491.95,498.35 508.05,498.35"/>
    </edge>
    <edge id=":2/3_0" function="internal">
        <lane id=":2/3_0_0" index="0" speed="13.90" length="5.00" shape="495.05,758.05 494.86,756.69 494.28,755.73 493.31,755.14 491.95,754.95"/>
    </edge>
    <edge id=":2/3_1" function="internal">
        <lane id=":2/3_1_0" index="0" speed="13.90" length="16.10" shape="495.05,758.05 495.05,741.95"/>
        <lane id=":2/3_1_1" index="1" speed="13.90" length="16.10" shape="498.35,758.05 498.35,741.95"/>
    </edge>
    <edge id=":2/3_3" function="internal">
        <lane id=":2/3_3_0" index="0" speed="13.90" length="7.66" shape="508.05,754.95 506.69,755.14 505.73,755.73 505.14,756.69 504.95,758.05"/>
        <lane id=":2/3_3_1" index="1" speed="13.90" length="7.66" shape="508.05,751.65 505.25,752.05 503.25,753.25 502.05,755.25 501.65,758.05"/>
    </edge>
    <edge id=":2/3_5" function="internal">
        <lane id=":2/3_5_0" index="0" speed="13.90" length="16.10" shape="508.05,751.65 491.95,751.65"/>
    </edge>
    <edge id=":2/3_6" function="internal">
        <lane id=":2/3_6_0" index="0" speed="13.90" length="5.00" shape="504.95,741.95 505.14,743.31 505.72,744.27 506.69,744.86 508.05,745.05"/>
    </edge>